*SPEF "ieee 1481-1999"
*DESIGN "FullAdder"
*DATE "16:03:02 Tuesday August 19, 2025"
*VENDOR "The OpenROAD Project"
*PROGRAM "OpenROAD"
*VERSION "edf00dff99f6c40d67a30c0e22a8191c5d2ed9d6"
*DESIGN_FLOW "NAME_SCOPE LOCAL" "PIN_CAP NONE"
*DIVIDER /
*DELIMITER :
*BUS_DELIMITER []
*T_UNIT 1 NS
*C_UNIT 1 PF
*R_UNIT 1 OHM
*L_UNIT 1 HENRY

*NAME_MAP
*3 a_i
*4 b_i
*5 cin_i
*6 cout_o
*7 sum_o
*8 _0_
*9 _1_
*10 _2_
*11 net1
*12 net2
*13 net3
*14 net4
*15 net5
*16 FILLER_0_100
*17 FILLER_0_105
*18 FILLER_0_111
*19 FILLER_0_113
*20 FILLER_0_125
*21 FILLER_0_137
*22 FILLER_0_141
*23 FILLER_0_15
*24 FILLER_0_153
*25 FILLER_0_165
*26 FILLER_0_169
*27 FILLER_0_181
*28 FILLER_0_189
*29 FILLER_0_27
*30 FILLER_0_29
*31 FILLER_0_3
*32 FILLER_0_41
*33 FILLER_0_53
*34 FILLER_0_57
*35 FILLER_0_69
*36 FILLER_0_81
*37 FILLER_0_85
*38 FILLER_0_90
*39 FILLER_10_109
*40 FILLER_10_121
*41 FILLER_10_133
*42 FILLER_10_139
*43 FILLER_10_141
*44 FILLER_10_15
*45 FILLER_10_153
*46 FILLER_10_165
*47 FILLER_10_177
*48 FILLER_10_189
*49 FILLER_10_27
*50 FILLER_10_29
*51 FILLER_10_3
*52 FILLER_10_41
*53 FILLER_10_53
*54 FILLER_10_65
*55 FILLER_10_77
*56 FILLER_10_83
*57 FILLER_10_85
*58 FILLER_10_97
*59 FILLER_11_105
*60 FILLER_11_111
*61 FILLER_11_113
*62 FILLER_11_125
*63 FILLER_11_137
*64 FILLER_11_149
*65 FILLER_11_15
*66 FILLER_11_161
*67 FILLER_11_167
*68 FILLER_11_169
*69 FILLER_11_181
*70 FILLER_11_189
*71 FILLER_11_27
*72 FILLER_11_3
*73 FILLER_11_39
*74 FILLER_11_51
*75 FILLER_11_55
*76 FILLER_11_57
*77 FILLER_11_69
*78 FILLER_11_81
*79 FILLER_11_93
*80 FILLER_12_109
*81 FILLER_12_121
*82 FILLER_12_133
*83 FILLER_12_139
*84 FILLER_12_141
*85 FILLER_12_15
*86 FILLER_12_153
*87 FILLER_12_165
*88 FILLER_12_177
*89 FILLER_12_189
*90 FILLER_12_27
*91 FILLER_12_29
*92 FILLER_12_3
*93 FILLER_12_41
*94 FILLER_12_53
*95 FILLER_12_65
*96 FILLER_12_77
*97 FILLER_12_83
*98 FILLER_12_85
*99 FILLER_12_97
*100 FILLER_13_105
*101 FILLER_13_111
*102 FILLER_13_113
*103 FILLER_13_125
*104 FILLER_13_137
*105 FILLER_13_149
*106 FILLER_13_15
*107 FILLER_13_161
*108 FILLER_13_167
*109 FILLER_13_169
*110 FILLER_13_181
*111 FILLER_13_189
*112 FILLER_13_27
*113 FILLER_13_3
*114 FILLER_13_39
*115 FILLER_13_51
*116 FILLER_13_55
*117 FILLER_13_57
*118 FILLER_13_69
*119 FILLER_13_81
*120 FILLER_13_93
*121 FILLER_14_109
*122 FILLER_14_121
*123 FILLER_14_133
*124 FILLER_14_139
*125 FILLER_14_141
*126 FILLER_14_15
*127 FILLER_14_153
*128 FILLER_14_165
*129 FILLER_14_177
*130 FILLER_14_185
*131 FILLER_14_27
*132 FILLER_14_29
*133 FILLER_14_3
*134 FILLER_14_41
*135 FILLER_14_53
*136 FILLER_14_65
*137 FILLER_14_77
*138 FILLER_14_83
*139 FILLER_14_85
*140 FILLER_14_97
*141 FILLER_15_105
*142 FILLER_15_111
*143 FILLER_15_113
*144 FILLER_15_125
*145 FILLER_15_137
*146 FILLER_15_149
*147 FILLER_15_15
*148 FILLER_15_161
*149 FILLER_15_167
*150 FILLER_15_169
*151 FILLER_15_181
*152 FILLER_15_189
*153 FILLER_15_27
*154 FILLER_15_3
*155 FILLER_15_39
*156 FILLER_15_51
*157 FILLER_15_55
*158 FILLER_15_57
*159 FILLER_15_69
*160 FILLER_15_81
*161 FILLER_15_93
*162 FILLER_16_109
*163 FILLER_16_121
*164 FILLER_16_133
*165 FILLER_16_139
*166 FILLER_16_141
*167 FILLER_16_15
*168 FILLER_16_153
*169 FILLER_16_165
*170 FILLER_16_177
*171 FILLER_16_189
*172 FILLER_16_27
*173 FILLER_16_29
*174 FILLER_16_3
*175 FILLER_16_41
*176 FILLER_16_53
*177 FILLER_16_65
*178 FILLER_16_77
*179 FILLER_16_83
*180 FILLER_16_85
*181 FILLER_16_97
*182 FILLER_17_105
*183 FILLER_17_111
*184 FILLER_17_113
*185 FILLER_17_125
*186 FILLER_17_137
*187 FILLER_17_149
*188 FILLER_17_15
*189 FILLER_17_161
*190 FILLER_17_167
*191 FILLER_17_169
*192 FILLER_17_181
*193 FILLER_17_189
*194 FILLER_17_27
*195 FILLER_17_3
*196 FILLER_17_39
*197 FILLER_17_51
*198 FILLER_17_55
*199 FILLER_17_57
*200 FILLER_17_69
*201 FILLER_17_81
*202 FILLER_17_93
*203 FILLER_18_109
*204 FILLER_18_121
*205 FILLER_18_133
*206 FILLER_18_139
*207 FILLER_18_141
*208 FILLER_18_15
*209 FILLER_18_153
*210 FILLER_18_165
*211 FILLER_18_177
*212 FILLER_18_189
*213 FILLER_18_27
*214 FILLER_18_29
*215 FILLER_18_3
*216 FILLER_18_41
*217 FILLER_18_53
*218 FILLER_18_65
*219 FILLER_18_77
*220 FILLER_18_83
*221 FILLER_18_85
*222 FILLER_18_97
*223 FILLER_19_105
*224 FILLER_19_111
*225 FILLER_19_113
*226 FILLER_19_125
*227 FILLER_19_137
*228 FILLER_19_149
*229 FILLER_19_15
*230 FILLER_19_161
*231 FILLER_19_167
*232 FILLER_19_169
*233 FILLER_19_181
*234 FILLER_19_189
*235 FILLER_19_27
*236 FILLER_19_3
*237 FILLER_19_39
*238 FILLER_19_51
*239 FILLER_19_55
*240 FILLER_19_57
*241 FILLER_19_69
*242 FILLER_19_81
*243 FILLER_19_93
*244 FILLER_1_107
*245 FILLER_1_111
*246 FILLER_1_113
*247 FILLER_1_125
*248 FILLER_1_137
*249 FILLER_1_149
*250 FILLER_1_15
*251 FILLER_1_161
*252 FILLER_1_167
*253 FILLER_1_169
*254 FILLER_1_181
*255 FILLER_1_189
*256 FILLER_1_27
*257 FILLER_1_3
*258 FILLER_1_39
*259 FILLER_1_51
*260 FILLER_1_55
*261 FILLER_1_57
*262 FILLER_1_69
*263 FILLER_1_81
*264 FILLER_20_109
*265 FILLER_20_121
*266 FILLER_20_133
*267 FILLER_20_139
*268 FILLER_20_141
*269 FILLER_20_15
*270 FILLER_20_153
*271 FILLER_20_165
*272 FILLER_20_177
*273 FILLER_20_189
*274 FILLER_20_27
*275 FILLER_20_29
*276 FILLER_20_3
*277 FILLER_20_41
*278 FILLER_20_53
*279 FILLER_20_65
*280 FILLER_20_77
*281 FILLER_20_83
*282 FILLER_20_85
*283 FILLER_20_97
*284 FILLER_21_105
*285 FILLER_21_111
*286 FILLER_21_113
*287 FILLER_21_125
*288 FILLER_21_137
*289 FILLER_21_149
*290 FILLER_21_15
*291 FILLER_21_161
*292 FILLER_21_167
*293 FILLER_21_169
*294 FILLER_21_181
*295 FILLER_21_189
*296 FILLER_21_27
*297 FILLER_21_3
*298 FILLER_21_39
*299 FILLER_21_51
*300 FILLER_21_55
*301 FILLER_21_57
*302 FILLER_21_69
*303 FILLER_21_81
*304 FILLER_21_93
*305 FILLER_22_109
*306 FILLER_22_121
*307 FILLER_22_133
*308 FILLER_22_139
*309 FILLER_22_141
*310 FILLER_22_15
*311 FILLER_22_153
*312 FILLER_22_165
*313 FILLER_22_177
*314 FILLER_22_189
*315 FILLER_22_27
*316 FILLER_22_29
*317 FILLER_22_3
*318 FILLER_22_41
*319 FILLER_22_53
*320 FILLER_22_65
*321 FILLER_22_77
*322 FILLER_22_83
*323 FILLER_22_85
*324 FILLER_22_97
*325 FILLER_23_105
*326 FILLER_23_111
*327 FILLER_23_113
*328 FILLER_23_125
*329 FILLER_23_137
*330 FILLER_23_149
*331 FILLER_23_15
*332 FILLER_23_161
*333 FILLER_23_167
*334 FILLER_23_169
*335 FILLER_23_181
*336 FILLER_23_189
*337 FILLER_23_27
*338 FILLER_23_3
*339 FILLER_23_39
*340 FILLER_23_51
*341 FILLER_23_55
*342 FILLER_23_57
*343 FILLER_23_69
*344 FILLER_23_81
*345 FILLER_23_93
*346 FILLER_24_109
*347 FILLER_24_121
*348 FILLER_24_133
*349 FILLER_24_139
*350 FILLER_24_141
*351 FILLER_24_15
*352 FILLER_24_153
*353 FILLER_24_165
*354 FILLER_24_177
*355 FILLER_24_189
*356 FILLER_24_27
*357 FILLER_24_29
*358 FILLER_24_3
*359 FILLER_24_41
*360 FILLER_24_53
*361 FILLER_24_65
*362 FILLER_24_77
*363 FILLER_24_83
*364 FILLER_24_85
*365 FILLER_24_97
*366 FILLER_25_105
*367 FILLER_25_111
*368 FILLER_25_113
*369 FILLER_25_125
*370 FILLER_25_137
*371 FILLER_25_149
*372 FILLER_25_15
*373 FILLER_25_161
*374 FILLER_25_167
*375 FILLER_25_169
*376 FILLER_25_181
*377 FILLER_25_189
*378 FILLER_25_27
*379 FILLER_25_3
*380 FILLER_25_39
*381 FILLER_25_51
*382 FILLER_25_55
*383 FILLER_25_57
*384 FILLER_25_69
*385 FILLER_25_81
*386 FILLER_25_93
*387 FILLER_26_109
*388 FILLER_26_121
*389 FILLER_26_133
*390 FILLER_26_139
*391 FILLER_26_141
*392 FILLER_26_15
*393 FILLER_26_153
*394 FILLER_26_165
*395 FILLER_26_177
*396 FILLER_26_189
*397 FILLER_26_27
*398 FILLER_26_29
*399 FILLER_26_3
*400 FILLER_26_41
*401 FILLER_26_53
*402 FILLER_26_65
*403 FILLER_26_77
*404 FILLER_26_83
*405 FILLER_26_85
*406 FILLER_26_97
*407 FILLER_27_109
*408 FILLER_27_113
*409 FILLER_27_125
*410 FILLER_27_137
*411 FILLER_27_141
*412 FILLER_27_15
*413 FILLER_27_153
*414 FILLER_27_165
*415 FILLER_27_169
*416 FILLER_27_181
*417 FILLER_27_189
*418 FILLER_27_27
*419 FILLER_27_29
*420 FILLER_27_3
*421 FILLER_27_41
*422 FILLER_27_53
*423 FILLER_27_57
*424 FILLER_27_69
*425 FILLER_27_81
*426 FILLER_27_85
*427 FILLER_27_97
*428 FILLER_2_105
*429 FILLER_2_117
*430 FILLER_2_129
*431 FILLER_2_137
*432 FILLER_2_141
*433 FILLER_2_15
*434 FILLER_2_153
*435 FILLER_2_165
*436 FILLER_2_177
*437 FILLER_2_189
*438 FILLER_2_27
*439 FILLER_2_29
*440 FILLER_2_3
*441 FILLER_2_41
*442 FILLER_2_53
*443 FILLER_2_65
*444 FILLER_2_77
*445 FILLER_2_83
*446 FILLER_2_85
*447 FILLER_2_97
*448 FILLER_3_105
*449 FILLER_3_111
*450 FILLER_3_113
*451 FILLER_3_125
*452 FILLER_3_137
*453 FILLER_3_149
*454 FILLER_3_15
*455 FILLER_3_161
*456 FILLER_3_167
*457 FILLER_3_169
*458 FILLER_3_181
*459 FILLER_3_189
*460 FILLER_3_27
*461 FILLER_3_3
*462 FILLER_3_39
*463 FILLER_3_51
*464 FILLER_3_55
*465 FILLER_3_57
*466 FILLER_3_69
*467 FILLER_3_81
*468 FILLER_3_93
*469 FILLER_4_109
*470 FILLER_4_121
*471 FILLER_4_133
*472 FILLER_4_139
*473 FILLER_4_141
*474 FILLER_4_15
*475 FILLER_4_153
*476 FILLER_4_165
*477 FILLER_4_177
*478 FILLER_4_189
*479 FILLER_4_27
*480 FILLER_4_29
*481 FILLER_4_3
*482 FILLER_4_41
*483 FILLER_4_53
*484 FILLER_4_65
*485 FILLER_4_77
*486 FILLER_4_83
*487 FILLER_4_85
*488 FILLER_4_97
*489 FILLER_5_105
*490 FILLER_5_111
*491 FILLER_5_113
*492 FILLER_5_125
*493 FILLER_5_137
*494 FILLER_5_149
*495 FILLER_5_15
*496 FILLER_5_161
*497 FILLER_5_167
*498 FILLER_5_169
*499 FILLER_5_181
*500 FILLER_5_189
*501 FILLER_5_27
*502 FILLER_5_3
*503 FILLER_5_39
*504 FILLER_5_51
*505 FILLER_5_55
*506 FILLER_5_57
*507 FILLER_5_69
*508 FILLER_5_81
*509 FILLER_5_93
*510 FILLER_6_109
*511 FILLER_6_121
*512 FILLER_6_133
*513 FILLER_6_139
*514 FILLER_6_141
*515 FILLER_6_15
*516 FILLER_6_153
*517 FILLER_6_165
*518 FILLER_6_177
*519 FILLER_6_189
*520 FILLER_6_27
*521 FILLER_6_29
*522 FILLER_6_3
*523 FILLER_6_41
*524 FILLER_6_53
*525 FILLER_6_65
*526 FILLER_6_77
*527 FILLER_6_83
*528 FILLER_6_85
*529 FILLER_6_97
*530 FILLER_7_105
*531 FILLER_7_111
*532 FILLER_7_113
*533 FILLER_7_125
*534 FILLER_7_137
*535 FILLER_7_149
*536 FILLER_7_15
*537 FILLER_7_161
*538 FILLER_7_167
*539 FILLER_7_169
*540 FILLER_7_181
*541 FILLER_7_189
*542 FILLER_7_27
*543 FILLER_7_3
*544 FILLER_7_39
*545 FILLER_7_51
*546 FILLER_7_55
*547 FILLER_7_57
*548 FILLER_7_69
*549 FILLER_7_81
*550 FILLER_7_93
*551 FILLER_8_109
*552 FILLER_8_121
*553 FILLER_8_133
*554 FILLER_8_139
*555 FILLER_8_141
*556 FILLER_8_15
*557 FILLER_8_153
*558 FILLER_8_165
*559 FILLER_8_177
*560 FILLER_8_189
*561 FILLER_8_27
*562 FILLER_8_29
*563 FILLER_8_3
*564 FILLER_8_41
*565 FILLER_8_53
*566 FILLER_8_65
*567 FILLER_8_77
*568 FILLER_8_83
*569 FILLER_8_85
*570 FILLER_8_97
*571 FILLER_9_105
*572 FILLER_9_111
*573 FILLER_9_113
*574 FILLER_9_125
*575 FILLER_9_137
*576 FILLER_9_149
*577 FILLER_9_15
*578 FILLER_9_161
*579 FILLER_9_167
*580 FILLER_9_169
*581 FILLER_9_181
*582 FILLER_9_189
*583 FILLER_9_27
*584 FILLER_9_3
*585 FILLER_9_39
*586 FILLER_9_51
*587 FILLER_9_55
*588 FILLER_9_57
*589 FILLER_9_69
*590 FILLER_9_81
*591 FILLER_9_93
*592 PHY_EDGE_ROW_0_Left_28
*593 PHY_EDGE_ROW_0_Right_0
*594 PHY_EDGE_ROW_10_Left_38
*595 PHY_EDGE_ROW_10_Right_10
*596 PHY_EDGE_ROW_11_Left_39
*597 PHY_EDGE_ROW_11_Right_11
*598 PHY_EDGE_ROW_12_Left_40
*599 PHY_EDGE_ROW_12_Right_12
*600 PHY_EDGE_ROW_13_Left_41
*601 PHY_EDGE_ROW_13_Right_13
*602 PHY_EDGE_ROW_14_Left_42
*603 PHY_EDGE_ROW_14_Right_14
*604 PHY_EDGE_ROW_15_Left_43
*605 PHY_EDGE_ROW_15_Right_15
*606 PHY_EDGE_ROW_16_Left_44
*607 PHY_EDGE_ROW_16_Right_16
*608 PHY_EDGE_ROW_17_Left_45
*609 PHY_EDGE_ROW_17_Right_17
*610 PHY_EDGE_ROW_18_Left_46
*611 PHY_EDGE_ROW_18_Right_18
*612 PHY_EDGE_ROW_19_Left_47
*613 PHY_EDGE_ROW_19_Right_19
*614 PHY_EDGE_ROW_1_Left_29
*615 PHY_EDGE_ROW_1_Right_1
*616 PHY_EDGE_ROW_20_Left_48
*617 PHY_EDGE_ROW_20_Right_20
*618 PHY_EDGE_ROW_21_Left_49
*619 PHY_EDGE_ROW_21_Right_21
*620 PHY_EDGE_ROW_22_Left_50
*621 PHY_EDGE_ROW_22_Right_22
*622 PHY_EDGE_ROW_23_Left_51
*623 PHY_EDGE_ROW_23_Right_23
*624 PHY_EDGE_ROW_24_Left_52
*625 PHY_EDGE_ROW_24_Right_24
*626 PHY_EDGE_ROW_25_Left_53
*627 PHY_EDGE_ROW_25_Right_25
*628 PHY_EDGE_ROW_26_Left_54
*629 PHY_EDGE_ROW_26_Right_26
*630 PHY_EDGE_ROW_27_Left_55
*631 PHY_EDGE_ROW_27_Right_27
*632 PHY_EDGE_ROW_2_Left_30
*633 PHY_EDGE_ROW_2_Right_2
*634 PHY_EDGE_ROW_3_Left_31
*635 PHY_EDGE_ROW_3_Right_3
*636 PHY_EDGE_ROW_4_Left_32
*637 PHY_EDGE_ROW_4_Right_4
*638 PHY_EDGE_ROW_5_Left_33
*639 PHY_EDGE_ROW_5_Right_5
*640 PHY_EDGE_ROW_6_Left_34
*641 PHY_EDGE_ROW_6_Right_6
*642 PHY_EDGE_ROW_7_Left_35
*643 PHY_EDGE_ROW_7_Right_7
*644 PHY_EDGE_ROW_8_Left_36
*645 PHY_EDGE_ROW_8_Right_8
*646 PHY_EDGE_ROW_9_Left_37
*647 PHY_EDGE_ROW_9_Right_9
*648 TAP_TAPCELL_ROW_0_56
*649 TAP_TAPCELL_ROW_0_57
*650 TAP_TAPCELL_ROW_0_58
*651 TAP_TAPCELL_ROW_0_59
*652 TAP_TAPCELL_ROW_0_60
*653 TAP_TAPCELL_ROW_0_61
*654 TAP_TAPCELL_ROW_10_89
*655 TAP_TAPCELL_ROW_10_90
*656 TAP_TAPCELL_ROW_10_91
*657 TAP_TAPCELL_ROW_11_92
*658 TAP_TAPCELL_ROW_11_93
*659 TAP_TAPCELL_ROW_11_94
*660 TAP_TAPCELL_ROW_12_95
*661 TAP_TAPCELL_ROW_12_96
*662 TAP_TAPCELL_ROW_12_97
*663 TAP_TAPCELL_ROW_13_100
*664 TAP_TAPCELL_ROW_13_98
*665 TAP_TAPCELL_ROW_13_99
*666 TAP_TAPCELL_ROW_14_101
*667 TAP_TAPCELL_ROW_14_102
*668 TAP_TAPCELL_ROW_14_103
*669 TAP_TAPCELL_ROW_15_104
*670 TAP_TAPCELL_ROW_15_105
*671 TAP_TAPCELL_ROW_15_106
*672 TAP_TAPCELL_ROW_16_107
*673 TAP_TAPCELL_ROW_16_108
*674 TAP_TAPCELL_ROW_16_109
*675 TAP_TAPCELL_ROW_17_110
*676 TAP_TAPCELL_ROW_17_111
*677 TAP_TAPCELL_ROW_17_112
*678 TAP_TAPCELL_ROW_18_113
*679 TAP_TAPCELL_ROW_18_114
*680 TAP_TAPCELL_ROW_18_115
*681 TAP_TAPCELL_ROW_19_116
*682 TAP_TAPCELL_ROW_19_117
*683 TAP_TAPCELL_ROW_19_118
*684 TAP_TAPCELL_ROW_1_62
*685 TAP_TAPCELL_ROW_1_63
*686 TAP_TAPCELL_ROW_1_64
*687 TAP_TAPCELL_ROW_20_119
*688 TAP_TAPCELL_ROW_20_120
*689 TAP_TAPCELL_ROW_20_121
*690 TAP_TAPCELL_ROW_21_122
*691 TAP_TAPCELL_ROW_21_123
*692 TAP_TAPCELL_ROW_21_124
*693 TAP_TAPCELL_ROW_22_125
*694 TAP_TAPCELL_ROW_22_126
*695 TAP_TAPCELL_ROW_22_127
*696 TAP_TAPCELL_ROW_23_128
*697 TAP_TAPCELL_ROW_23_129
*698 TAP_TAPCELL_ROW_23_130
*699 TAP_TAPCELL_ROW_24_131
*700 TAP_TAPCELL_ROW_24_132
*701 TAP_TAPCELL_ROW_24_133
*702 TAP_TAPCELL_ROW_25_134
*703 TAP_TAPCELL_ROW_25_135
*704 TAP_TAPCELL_ROW_25_136
*705 TAP_TAPCELL_ROW_26_137
*706 TAP_TAPCELL_ROW_26_138
*707 TAP_TAPCELL_ROW_26_139
*708 TAP_TAPCELL_ROW_27_140
*709 TAP_TAPCELL_ROW_27_141
*710 TAP_TAPCELL_ROW_27_142
*711 TAP_TAPCELL_ROW_27_143
*712 TAP_TAPCELL_ROW_27_144
*713 TAP_TAPCELL_ROW_27_145
*714 TAP_TAPCELL_ROW_2_65
*715 TAP_TAPCELL_ROW_2_66
*716 TAP_TAPCELL_ROW_2_67
*717 TAP_TAPCELL_ROW_3_68
*718 TAP_TAPCELL_ROW_3_69
*719 TAP_TAPCELL_ROW_3_70
*720 TAP_TAPCELL_ROW_4_71
*721 TAP_TAPCELL_ROW_4_72
*722 TAP_TAPCELL_ROW_4_73
*723 TAP_TAPCELL_ROW_5_74
*724 TAP_TAPCELL_ROW_5_75
*725 TAP_TAPCELL_ROW_5_76
*726 TAP_TAPCELL_ROW_6_77
*727 TAP_TAPCELL_ROW_6_78
*728 TAP_TAPCELL_ROW_6_79
*729 TAP_TAPCELL_ROW_7_80
*730 TAP_TAPCELL_ROW_7_81
*731 TAP_TAPCELL_ROW_7_82
*732 TAP_TAPCELL_ROW_8_83
*733 TAP_TAPCELL_ROW_8_84
*734 TAP_TAPCELL_ROW_8_85
*735 TAP_TAPCELL_ROW_9_86
*736 TAP_TAPCELL_ROW_9_87
*737 TAP_TAPCELL_ROW_9_88
*738 _3_
*739 _4_
*740 _5_
*741 _6_
*742 _7_
*743 input1
*744 input2
*745 input3
*746 output4
*747 output5

*PORTS
a_i I
b_i I
cin_i I
cout_o O
sum_o O

*D_NET *3 0.000904884
*CONN
*P a_i I
*I *743:A I *D sky130_fd_sc_hd__buf_1
*CAP
1 a_i 0.000442701
2 *743:A 0.000442701
3 *743:A cout_o 0
4 *743:A *745:A 0
5 *743:A *13:8 1.94812e-05
*RES
1 a_i *743:A 47.3214 
*END

*D_NET *4 0.00100784
*CONN
*P b_i I
*I *744:A I *D sky130_fd_sc_hd__buf_1
*CAP
1 b_i 0.000501812
2 *744:A 0.000501812
3 *744:A cout_o 0
4 *744:A *14:10 4.21594e-06
*RES
1 b_i *744:A 48.2743 
*END

*D_NET *5 0.000901682
*CONN
*P cin_i I
*I *745:A I *D sky130_fd_sc_hd__buf_1
*CAP
1 cin_i 0.000450841
2 *745:A 0.000450841
3 *743:A *745:A 0
*RES
1 cin_i *745:A 47.3214 
*END

*D_NET *6 0.000928335
*CONN
*P cout_o O
*I *746:X O *D sky130_fd_sc_hd__buf_2
*CAP
1 cout_o 0.000463722
2 *746:X 0.000463722
3 cout_o *8:10 8.91468e-07
4 *743:A cout_o 0
5 *744:A cout_o 0
*RES
1 *746:X cout_o 47.0936 
*END

*D_NET *7 0.000713916
*CONN
*P sum_o O
*I *747:X O *D sky130_fd_sc_hd__buf_2
*CAP
1 sum_o 0.000356958
2 *747:X 0.000356958
*RES
1 *747:X sum_o 48.6592 
*END

*D_NET *8 0.000504116
*CONN
*I *738:A1 I *D sky130_fd_sc_hd__o21ai_1
*I *739:Y O *D sky130_fd_sc_hd__inv_2
*CAP
1 *738:A1 0
2 *739:Y 0.00022568
3 *8:10 0.00022568
4 *8:10 *739:A 2.76611e-06
5 *8:10 *742:A 4.90994e-05
6 *8:10 *12:8 0
7 *8:10 *14:10 0
8 cout_o *8:10 8.91468e-07
*RES
1 *739:Y *8:10 41.3557 
2 *8:10 *738:A1 38 
*END

*D_NET *9 0.000199743
*CONN
*I *738:B1 I *D sky130_fd_sc_hd__o21ai_1
*I *740:Y O *D sky130_fd_sc_hd__nand2_1
*CAP
1 *738:B1 2.14284e-05
2 *740:Y 2.14284e-05
3 *738:B1 *740:B 5.67058e-05
4 *738:B1 *741:A 0.00010018
*RES
1 *740:Y *738:B1 47.0979 
*END

*D_NET *10 0.000564956
*CONN
*I *738:A2 I *D sky130_fd_sc_hd__o21ai_1
*I *742:B I *D sky130_fd_sc_hd__xnor2_1
*I *741:Y O *D sky130_fd_sc_hd__xnor2_1
*CAP
1 *738:A2 0.00011721
2 *742:B 0
3 *741:Y 0
4 *10:10 0.000107344
5 *10:4 0.000224553
6 *738:A2 *740:B 4.66537e-05
7 *738:A2 *741:A 0
8 *10:10 *742:A 6.91957e-05
*RES
1 *741:Y *10:4 23 
2 *10:4 *10:10 32.2579 
3 *10:10 *742:B 23 
4 *10:4 *738:A2 24.9471 
*END

*D_NET *11 0.00112284
*CONN
*I *740:B I *D sky130_fd_sc_hd__nand2_1
*I *741:B I *D sky130_fd_sc_hd__xnor2_1
*I *743:X O *D sky130_fd_sc_hd__buf_1
*CAP
1 *740:B 0.000168849
2 *741:B 0
3 *743:X 0.000117018
4 *11:10 0.000168849
5 *11:8 0.000117018
6 *740:B *740:A 0
7 *740:B *741:A 0.000284393
8 *11:8 *739:A 3.70094e-05
9 *11:8 *742:A 0.000126343
10 *738:A2 *740:B 4.66537e-05
11 *738:B1 *740:B 5.67058e-05
*RES
1 *743:X *11:8 40.2579 
2 *11:8 *11:10 15 
3 *11:10 *741:B 23 
4 *11:10 *740:B 27.5986 
*END

*D_NET *12 0.0014653
*CONN
*I *740:A I *D sky130_fd_sc_hd__nand2_1
*I *741:A I *D sky130_fd_sc_hd__xnor2_1
*I *744:X O *D sky130_fd_sc_hd__buf_1
*CAP
1 *740:A 4.01156e-05
2 *741:A 0.000284281
3 *744:X 9.89616e-05
4 *12:12 0.000392164
5 *12:8 0.000166729
6 *741:A *14:10 9.84794e-05
7 *12:8 *14:10 0
8 *738:A2 *741:A 0
9 *738:B1 *741:A 0.00010018
10 *740:B *740:A 0
11 *740:B *741:A 0.000284393
12 *8:10 *12:8 0
*RES
1 *744:X *12:8 39.5536 
2 *12:8 *12:12 16.0979 
3 *12:12 *741:A 29.235 
4 *12:12 *740:A 23.8493 
*END

*D_NET *13 0.00164846
*CONN
*I *742:A I *D sky130_fd_sc_hd__xnor2_1
*I *739:A I *D sky130_fd_sc_hd__inv_2
*I *745:X O *D sky130_fd_sc_hd__buf_1
*CAP
1 *742:A 0.000316097
2 *739:A 5.22458e-05
3 *745:X 0.000303939
4 *13:8 0.000672281
5 *739:A *14:10 0
6 *743:A *13:8 1.94812e-05
7 *8:10 *739:A 2.76611e-06
8 *8:10 *742:A 4.90994e-05
9 *10:10 *742:A 6.91957e-05
10 *11:8 *739:A 3.70094e-05
11 *11:8 *742:A 0.000126343
*RES
1 *745:X *13:8 41.9564 
2 *13:8 *739:A 39.2014 
3 *13:8 *742:A 44.2971 
*END

*D_NET *14 0.000493347
*CONN
*I *746:A I *D sky130_fd_sc_hd__buf_2
*I *738:Y O *D sky130_fd_sc_hd__o21ai_1
*CAP
1 *746:A 0
2 *738:Y 0.000195326
3 *14:10 0.000195326
4 *739:A *14:10 0
5 *741:A *14:10 9.84794e-05
6 *744:A *14:10 4.21594e-06
7 *8:10 *14:10 0
8 *12:8 *14:10 0
*RES
1 *738:Y *14:10 41.3557 
2 *14:10 *746:A 38 
*END

*D_NET *15 0.00767284
*CONN
*I *747:A I *D sky130_fd_sc_hd__buf_2
*I *742:Y O *D sky130_fd_sc_hd__xnor2_1
*CAP
1 *747:A 0
2 *742:Y 0
3 *15:12 0.00215136
4 *15:10 0.00383642
5 *15:6 0.00168506
*RES
1 *742:Y *15:6 38 
2 *15:6 *15:10 48.2464 
3 *15:10 *15:12 39.2121 
4 *15:12 *747:A 23 
*END
