* NGSPICE file created from FullAdder.ext - technology: sky130A

* Black-box entry subcircuit for sky130_ef_sc_hd__decap_12 abstract view
.subckt sky130_ef_sc_hd__decap_12 VPWR VGND VPB VNB
.ends

* Black-box entry subcircuit for sky130_fd_sc_hd__decap_6 abstract view
.subckt sky130_fd_sc_hd__decap_6 VGND VNB VPB VPWR
.ends

* Black-box entry subcircuit for sky130_fd_sc_hd__tapvpwrvgnd_1 abstract view
.subckt sky130_fd_sc_hd__tapvpwrvgnd_1 VGND VPWR
.ends

* Black-box entry subcircuit for sky130_fd_sc_hd__fill_1 abstract view
.subckt sky130_fd_sc_hd__fill_1 VGND VNB VPB VPWR
.ends

* Black-box entry subcircuit for sky130_fd_sc_hd__decap_3 abstract view
.subckt sky130_fd_sc_hd__decap_3 VGND VNB VPB VPWR
.ends

* Black-box entry subcircuit for sky130_fd_sc_hd__decap_8 abstract view
.subckt sky130_fd_sc_hd__decap_8 VGND VNB VPB VPWR
.ends

* Black-box entry subcircuit for sky130_fd_sc_hd__decap_4 abstract view
.subckt sky130_fd_sc_hd__decap_4 VGND VNB VPB VPWR
.ends

* Black-box entry subcircuit for sky130_fd_sc_hd__buf_1 abstract view
.subckt sky130_fd_sc_hd__buf_1 A VGND VNB VPB VPWR X
.ends

* Black-box entry subcircuit for sky130_fd_sc_hd__xnor2_1 abstract view
.subckt sky130_fd_sc_hd__xnor2_1 A B VGND VNB VPB VPWR Y
.ends

* Black-box entry subcircuit for sky130_fd_sc_hd__nand2_1 abstract view
.subckt sky130_fd_sc_hd__nand2_1 A B VGND VNB VPB VPWR Y
.ends

* Black-box entry subcircuit for sky130_fd_sc_hd__inv_2 abstract view
.subckt sky130_fd_sc_hd__inv_2 A VGND VNB VPB VPWR Y
.ends

* Black-box entry subcircuit for sky130_fd_sc_hd__o21ai_1 abstract view
.subckt sky130_fd_sc_hd__o21ai_1 A1 A2 B1 VGND VNB VPB VPWR Y
.ends

* Black-box entry subcircuit for sky130_fd_sc_hd__fill_2 abstract view
.subckt sky130_fd_sc_hd__fill_2 VGND VNB VPB VPWR
.ends

* Black-box entry subcircuit for sky130_fd_sc_hd__buf_2 abstract view
.subckt sky130_fd_sc_hd__buf_2 A VGND VNB VPB VPWR X
.ends

.subckt FullAdder VGND VPWR a_i b_i cin_i cout_o sum_o
XFILLER_22_177 VPWR VGND VPWR VGND sky130_ef_sc_hd__decap_12
XFILLER_22_133 VGND VGND VPWR VPWR sky130_fd_sc_hd__decap_6
XFILLER_26_85 VPWR VGND VPWR VGND sky130_ef_sc_hd__decap_12
XFILLER_26_41 VPWR VGND VPWR VGND sky130_ef_sc_hd__decap_12
XTAP_TAPCELL_ROW_15_106 VGND VPWR sky130_fd_sc_hd__tapvpwrvgnd_1
XFILLER_9_137 VPWR VGND VPWR VGND sky130_ef_sc_hd__decap_12
XFILLER_13_111 VGND VGND VPWR VPWR sky130_fd_sc_hd__fill_1
XTAP_TAPCELL_ROW_20_120 VGND VPWR sky130_fd_sc_hd__tapvpwrvgnd_1
XFILLER_12_65 VPWR VGND VPWR VGND sky130_ef_sc_hd__decap_12
XFILLER_2_165 VPWR VGND VPWR VGND sky130_ef_sc_hd__decap_12
XFILLER_0_57 VPWR VGND VPWR VGND sky130_ef_sc_hd__decap_12
XFILLER_9_55 VGND VGND VPWR VPWR sky130_fd_sc_hd__fill_1
XPHY_EDGE_ROW_8_Left_36 VGND VGND VPWR VPWR sky130_fd_sc_hd__decap_3
XFILLER_18_97 VPWR VGND VPWR VGND sky130_ef_sc_hd__decap_12
XFILLER_18_53 VPWR VGND VPWR VGND sky130_ef_sc_hd__decap_12
XFILLER_20_65 VPWR VGND VPWR VGND sky130_ef_sc_hd__decap_12
XFILLER_26_109 VPWR VGND VPWR VGND sky130_ef_sc_hd__decap_12
XFILLER_19_161 VGND VGND VPWR VPWR sky130_fd_sc_hd__decap_6
XFILLER_13_3 VPWR VGND VPWR VGND sky130_ef_sc_hd__decap_12
XTAP_TAPCELL_ROW_18_115 VGND VPWR sky130_fd_sc_hd__tapvpwrvgnd_1
XFILLER_16_153 VPWR VGND VPWR VGND sky130_ef_sc_hd__decap_12
XFILLER_22_189 VGND VGND VPWR VPWR sky130_fd_sc_hd__fill_1
XFILLER_26_97 VPWR VGND VPWR VGND sky130_ef_sc_hd__decap_12
XFILLER_26_53 VPWR VGND VPWR VGND sky130_ef_sc_hd__decap_12
XPHY_EDGE_ROW_21_Left_49 VGND VGND VPWR VPWR sky130_fd_sc_hd__decap_3
XFILLER_13_189 VGND VGND VPWR VPWR sky130_fd_sc_hd__fill_1
XFILLER_13_167 VGND VGND VPWR VPWR sky130_fd_sc_hd__fill_1
XFILLER_3_57 VPWR VGND VPWR VGND sky130_ef_sc_hd__decap_12
XFILLER_9_105 VGND VGND VPWR VPWR sky130_fd_sc_hd__decap_6
XFILLER_9_149 VPWR VGND VPWR VGND sky130_ef_sc_hd__decap_12
XTAP_TAPCELL_ROW_20_121 VGND VPWR sky130_fd_sc_hd__tapvpwrvgnd_1
XFILLER_12_77 VGND VGND VPWR VPWR sky130_fd_sc_hd__decap_6
XPHY_EDGE_ROW_21_Right_21 VGND VGND VPWR VPWR sky130_fd_sc_hd__decap_3
XPHY_EDGE_ROW_12_Right_12 VGND VGND VPWR VPWR sky130_fd_sc_hd__decap_3
XFILLER_2_177 VPWR VGND VPWR VGND sky130_ef_sc_hd__decap_12
XFILLER_0_69 VPWR VGND VPWR VGND sky130_ef_sc_hd__decap_12
XPHY_EDGE_ROW_24_Left_52 VGND VGND VPWR VPWR sky130_fd_sc_hd__decap_3
XFILLER_18_65 VPWR VGND VPWR VGND sky130_ef_sc_hd__decap_12
XFILLER_20_77 VGND VGND VPWR VPWR sky130_fd_sc_hd__decap_6
XFILLER_15_55 VGND VGND VPWR VPWR sky130_fd_sc_hd__fill_1
XPHY_EDGE_ROW_6_Right_6 VGND VGND VPWR VPWR sky130_fd_sc_hd__decap_3
XFILLER_16_165 VPWR VGND VPWR VGND sky130_ef_sc_hd__decap_12
XFILLER_16_121 VPWR VGND VPWR VGND sky130_ef_sc_hd__decap_12
XFILLER_26_65 VPWR VGND VPWR VGND sky130_ef_sc_hd__decap_12
XTAP_TAPCELL_ROW_23_130 VGND VPWR sky130_fd_sc_hd__tapvpwrvgnd_1
XFILLER_13_113 VPWR VGND VPWR VGND sky130_ef_sc_hd__decap_12
XFILLER_3_69 VPWR VGND VPWR VGND sky130_ef_sc_hd__decap_12
XFILLER_6_109 VPWR VGND VPWR VGND sky130_ef_sc_hd__decap_12
XFILLER_23_55 VGND VGND VPWR VPWR sky130_fd_sc_hd__fill_1
XFILLER_3_3 VPWR VGND VPWR VGND sky130_ef_sc_hd__decap_12
XFILLER_2_189 VGND VGND VPWR VPWR sky130_fd_sc_hd__fill_1
XFILLER_0_15 VPWR VGND VPWR VGND sky130_ef_sc_hd__decap_12
XFILLER_9_57 VPWR VGND VPWR VGND sky130_ef_sc_hd__decap_12
XFILLER_18_77 VGND VGND VPWR VPWR sky130_fd_sc_hd__decap_6
XFILLER_25_111 VGND VGND VPWR VPWR sky130_fd_sc_hd__fill_1
XFILLER_16_133 VGND VGND VPWR VPWR sky130_fd_sc_hd__decap_6
XFILLER_16_177 VPWR VGND VPWR VGND sky130_ef_sc_hd__decap_12
XFILLER_26_77 VGND VGND VPWR VPWR sky130_fd_sc_hd__decap_6
XFILLER_13_169 VPWR VGND VPWR VGND sky130_ef_sc_hd__decap_12
XFILLER_13_125 VPWR VGND VPWR VGND sky130_ef_sc_hd__decap_12
XFILLER_3_15 VPWR VGND VPWR VGND sky130_ef_sc_hd__decap_12
XFILLER_10_139 VGND VGND VPWR VPWR sky130_fd_sc_hd__fill_1
XFILLER_0_27 VGND VGND VPWR VPWR sky130_fd_sc_hd__fill_1
XFILLER_9_69 VPWR VGND VPWR VGND sky130_ef_sc_hd__decap_12
XFILLER_1_81 VPWR VGND VPWR VGND sky130_ef_sc_hd__decap_12
XFILLER_6_15 VPWR VGND VPWR VGND sky130_ef_sc_hd__decap_12
XTAP_TAPCELL_ROW_10_90 VGND VPWR sky130_fd_sc_hd__tapvpwrvgnd_1
XFILLER_25_189 VGND VGND VPWR VPWR sky130_fd_sc_hd__fill_1
XFILLER_25_167 VGND VGND VPWR VPWR sky130_fd_sc_hd__fill_1
XFILLER_15_57 VPWR VGND VPWR VGND sky130_ef_sc_hd__decap_12
XFILLER_16_189 VGND VGND VPWR VPWR sky130_fd_sc_hd__fill_1
XFILLER_11_3 VPWR VGND VPWR VGND sky130_ef_sc_hd__decap_12
XFILLER_21_181 VGND VGND VPWR VPWR sky130_fd_sc_hd__decap_8
XFILLER_3_27 VPWR VGND VPWR VGND sky130_ef_sc_hd__decap_12
XFILLER_13_137 VPWR VGND VPWR VGND sky130_ef_sc_hd__decap_12
XTAP_TAPCELL_ROW_3_70 VGND VPWR sky130_fd_sc_hd__tapvpwrvgnd_1
XFILLER_8_141 VPWR VGND VPWR VGND sky130_ef_sc_hd__decap_12
XFILLER_5_111 VGND VGND VPWR VPWR sky130_fd_sc_hd__fill_1
XFILLER_23_57 VPWR VGND VPWR VGND sky130_ef_sc_hd__decap_12
XTAP_TAPCELL_ROW_0_60 VGND VPWR sky130_fd_sc_hd__tapvpwrvgnd_1
XFILLER_9_15 VPWR VGND VPWR VGND sky130_ef_sc_hd__decap_12
XTAP_TAPCELL_ROW_10_91 VGND VPWR sky130_fd_sc_hd__tapvpwrvgnd_1
XFILLER_6_27 VGND VGND VPWR VPWR sky130_fd_sc_hd__fill_1
XFILLER_25_113 VPWR VGND VPWR VGND sky130_ef_sc_hd__decap_12
XFILLER_15_69 VPWR VGND VPWR VGND sky130_ef_sc_hd__decap_12
XPHY_EDGE_ROW_19_Right_19 VGND VGND VPWR VPWR sky130_fd_sc_hd__decap_3
XPHY_EDGE_ROW_15_Left_43 VGND VGND VPWR VPWR sky130_fd_sc_hd__decap_3
XFILLER_7_81 VPWR VGND VPWR VGND sky130_ef_sc_hd__decap_12
XFILLER_3_39 VPWR VGND VPWR VGND sky130_ef_sc_hd__decap_12
XFILLER_13_105 VGND VGND VPWR VPWR sky130_fd_sc_hd__decap_6
XFILLER_13_149 VPWR VGND VPWR VGND sky130_ef_sc_hd__decap_12
XFILLER_8_153 VPWR VGND VPWR VGND sky130_ef_sc_hd__decap_12
XPHY_EDGE_ROW_0_Left_28 VGND VGND VPWR VPWR sky130_fd_sc_hd__decap_3
XFILLER_12_15 VPWR VGND VPWR VGND sky130_ef_sc_hd__decap_12
XFILLER_5_167 VGND VGND VPWR VPWR sky130_fd_sc_hd__fill_1
XFILLER_5_189 VGND VGND VPWR VPWR sky130_fd_sc_hd__fill_1
XFILLER_23_69 VPWR VGND VPWR VGND sky130_ef_sc_hd__decap_12
XFILLER_2_137 VGND VGND VPWR VPWR sky130_fd_sc_hd__decap_3
XFILLER_0_29 VPWR VGND VPWR VGND sky130_ef_sc_hd__decap_12
XFILLER_9_27 VPWR VGND VPWR VGND sky130_ef_sc_hd__decap_12
XFILLER_1_181 VGND VGND VPWR VPWR sky130_fd_sc_hd__decap_8
XTAP_TAPCELL_ROW_0_61 VGND VPWR sky130_fd_sc_hd__tapvpwrvgnd_1
XPHY_EDGE_ROW_3_Left_31 VGND VGND VPWR VPWR sky130_fd_sc_hd__decap_3
XFILLER_1_3 VPWR VGND VPWR VGND sky130_ef_sc_hd__decap_12
XFILLER_20_15 VPWR VGND VPWR VGND sky130_ef_sc_hd__decap_12
XFILLER_19_111 VGND VGND VPWR VPWR sky130_fd_sc_hd__fill_1
XFILLER_25_169 VPWR VGND VPWR VGND sky130_ef_sc_hd__decap_12
XFILLER_25_125 VPWR VGND VPWR VGND sky130_ef_sc_hd__decap_12
XFILLER_15_15 VPWR VGND VPWR VGND sky130_ef_sc_hd__decap_12
XFILLER_22_139 VGND VGND VPWR VPWR sky130_fd_sc_hd__fill_1
XFILLER_7_93 VPWR VGND VPWR VGND sky130_ef_sc_hd__decap_12
XFILLER_21_161 VGND VGND VPWR VPWR sky130_fd_sc_hd__decap_6
XFILLER_8_121 VPWR VGND VPWR VGND sky130_ef_sc_hd__decap_12
XFILLER_8_165 VPWR VGND VPWR VGND sky130_ef_sc_hd__decap_12
XTAP_TAPCELL_ROW_14_101 VGND VPWR sky130_fd_sc_hd__tapvpwrvgnd_1
XFILLER_10_109 VPWR VGND VPWR VGND sky130_ef_sc_hd__decap_12
XFILLER_12_27 VGND VGND VPWR VPWR sky130_fd_sc_hd__fill_1
XFILLER_5_113 VPWR VGND VPWR VGND sky130_ef_sc_hd__decap_12
XFILLER_23_15 VPWR VGND VPWR VGND sky130_ef_sc_hd__decap_12
XFILLER_4_83 VGND VGND VPWR VPWR sky130_fd_sc_hd__fill_1
XFILLER_2_105 VPWR VGND VPWR VGND sky130_ef_sc_hd__decap_12
XFILLER_9_39 VPWR VGND VPWR VGND sky130_ef_sc_hd__decap_12
XFILLER_13_81 VPWR VGND VPWR VGND sky130_ef_sc_hd__decap_12
XFILLER_18_15 VPWR VGND VPWR VGND sky130_ef_sc_hd__decap_12
XFILLER_27_3 VPWR VGND VPWR VGND sky130_ef_sc_hd__decap_12
XFILLER_20_27 VGND VGND VPWR VPWR sky130_fd_sc_hd__fill_1
XFILLER_1_51 VGND VGND VPWR VPWR sky130_fd_sc_hd__decap_4
XFILLER_19_189 VGND VGND VPWR VPWR sky130_fd_sc_hd__fill_1
XFILLER_19_167 VGND VGND VPWR VPWR sky130_fd_sc_hd__fill_1
XFILLER_6_29 VPWR VGND VPWR VGND sky130_ef_sc_hd__decap_12
XFILLER_25_137 VPWR VGND VPWR VGND sky130_ef_sc_hd__decap_12
XFILLER_15_27 VPWR VGND VPWR VGND sky130_ef_sc_hd__decap_12
XPHY_EDGE_ROW_1_Right_1 VGND VGND VPWR VPWR sky130_fd_sc_hd__decap_3
XFILLER_21_81 VPWR VGND VPWR VGND sky130_ef_sc_hd__decap_12
XTAP_TAPCELL_ROW_17_110 VGND VPWR sky130_fd_sc_hd__tapvpwrvgnd_1
XFILLER_15_181 VGND VGND VPWR VPWR sky130_fd_sc_hd__decap_8
XFILLER_26_15 VPWR VGND VPWR VGND sky130_ef_sc_hd__decap_12
XFILLER_8_133 VGND VGND VPWR VPWR sky130_fd_sc_hd__decap_6
XFILLER_8_177 VPWR VGND VPWR VGND sky130_ef_sc_hd__decap_12
XTAP_TAPCELL_ROW_14_102 VGND VPWR sky130_fd_sc_hd__tapvpwrvgnd_1
XFILLER_5_125 VPWR VGND VPWR VGND sky130_ef_sc_hd__decap_12
XFILLER_5_169 VPWR VGND VPWR VGND sky130_ef_sc_hd__decap_12
XFILLER_23_27 VPWR VGND VPWR VGND sky130_ef_sc_hd__decap_12
XFILLER_2_117 VPWR VGND VPWR VGND sky130_ef_sc_hd__decap_12
XFILLER_1_161 VGND VGND VPWR VPWR sky130_fd_sc_hd__decap_6
XFILLER_13_93 VPWR VGND VPWR VGND sky130_ef_sc_hd__decap_12
XFILLER_18_27 VGND VGND VPWR VPWR sky130_fd_sc_hd__fill_1
XFILLER_19_113 VPWR VGND VPWR VGND sky130_ef_sc_hd__decap_12
XFILLER_10_83 VGND VGND VPWR VPWR sky130_fd_sc_hd__fill_1
XFILLER_25_105 VGND VGND VPWR VPWR sky130_fd_sc_hd__decap_6
XFILLER_19_81 VPWR VGND VPWR VGND sky130_ef_sc_hd__decap_12
XFILLER_25_149 VPWR VGND VPWR VGND sky130_ef_sc_hd__decap_12
XFILLER_15_39 VPWR VGND VPWR VGND sky130_ef_sc_hd__decap_12
XFILLER_21_93 VPWR VGND VPWR VGND sky130_ef_sc_hd__decap_12
XTAP_TAPCELL_ROW_17_111 VGND VPWR sky130_fd_sc_hd__tapvpwrvgnd_1
XFILLER_26_27 VGND VGND VPWR VPWR sky130_fd_sc_hd__fill_1
XPHY_EDGE_ROW_24_Right_24 VGND VGND VPWR VPWR sky130_fd_sc_hd__decap_3
XPHY_EDGE_ROW_15_Right_15 VGND VGND VPWR VPWR sky130_fd_sc_hd__decap_3
XFILLER_7_51 VGND VGND VPWR VPWR sky130_fd_sc_hd__decap_4
XFILLER_8_189 VGND VGND VPWR VPWR sky130_fd_sc_hd__fill_1
XFILLER_12_141 VPWR VGND VPWR VGND sky130_ef_sc_hd__decap_12
XTAP_TAPCELL_ROW_14_103 VGND VPWR sky130_fd_sc_hd__tapvpwrvgnd_1
XPHY_EDGE_ROW_19_Left_47 VGND VGND VPWR VPWR sky130_fd_sc_hd__decap_3
XFILLER_12_29 VPWR VGND VPWR VGND sky130_ef_sc_hd__decap_12
XFILLER_5_137 VPWR VGND VPWR VGND sky130_ef_sc_hd__decap_12
XFILLER_27_81 VGND VGND VPWR VPWR sky130_fd_sc_hd__decap_3
XFILLER_4_41 VPWR VGND VPWR VGND sky130_ef_sc_hd__decap_12
XFILLER_4_85 VPWR VGND VPWR VGND sky130_ef_sc_hd__decap_12
XFILLER_23_39 VPWR VGND VPWR VGND sky130_ef_sc_hd__decap_12
XFILLER_2_129 VGND VGND VPWR VPWR sky130_fd_sc_hd__decap_8
XFILLER_20_29 VPWR VGND VPWR VGND sky130_ef_sc_hd__decap_12
XPHY_EDGE_ROW_7_Left_35 VGND VGND VPWR VPWR sky130_fd_sc_hd__decap_3
XFILLER_19_169 VPWR VGND VPWR VGND sky130_ef_sc_hd__decap_12
XFILLER_19_125 VPWR VGND VPWR VGND sky130_ef_sc_hd__decap_12
XFILLER_19_93 VPWR VGND VPWR VGND sky130_ef_sc_hd__decap_12
XFILLER_16_139 VGND VGND VPWR VPWR sky130_fd_sc_hd__fill_1
XFILLER_22_109 VPWR VGND VPWR VGND sky130_ef_sc_hd__decap_12
XTAP_TAPCELL_ROW_17_112 VGND VPWR sky130_fd_sc_hd__tapvpwrvgnd_1
XFILLER_15_161 VGND VGND VPWR VPWR sky130_fd_sc_hd__decap_6
XFILLER_16_83 VGND VGND VPWR VPWR sky130_fd_sc_hd__fill_1
XFILLER_12_153 VPWR VGND VPWR VGND sky130_ef_sc_hd__decap_12
XFILLER_5_105 VGND VGND VPWR VPWR sky130_fd_sc_hd__decap_6
XFILLER_5_149 VPWR VGND VPWR VGND sky130_ef_sc_hd__decap_12
XPHY_EDGE_ROW_20_Left_48 VGND VGND VPWR VPWR sky130_fd_sc_hd__decap_3
XFILLER_4_53 VPWR VGND VPWR VGND sky130_ef_sc_hd__decap_12
XFILLER_4_97 VPWR VGND VPWR VGND sky130_ef_sc_hd__decap_12
XFILLER_13_51 VGND VGND VPWR VPWR sky130_fd_sc_hd__decap_4
XFILLER_18_29 VPWR VGND VPWR VGND sky130_ef_sc_hd__decap_12
XFILLER_24_83 VGND VGND VPWR VPWR sky130_fd_sc_hd__fill_1
XPHY_EDGE_ROW_23_Left_51 VGND VGND VPWR VPWR sky130_fd_sc_hd__decap_3
XFILLER_27_181 VGND VGND VPWR VPWR sky130_fd_sc_hd__decap_8
XFILLER_19_137 VPWR VGND VPWR VGND sky130_ef_sc_hd__decap_12
XFILLER_10_41 VPWR VGND VPWR VGND sky130_ef_sc_hd__decap_12
XFILLER_10_85 VPWR VGND VPWR VGND sky130_ef_sc_hd__decap_12
XFILLER_25_3 VPWR VGND VPWR VGND sky130_ef_sc_hd__decap_12
XFILLER_21_51 VGND VGND VPWR VPWR sky130_fd_sc_hd__decap_4
XFILLER_26_29 VPWR VGND VPWR VGND sky130_ef_sc_hd__decap_12
XPHY_EDGE_ROW_5_Right_5 VGND VGND VPWR VPWR sky130_fd_sc_hd__decap_3
XFILLER_12_121 VPWR VGND VPWR VGND sky130_ef_sc_hd__decap_12
XFILLER_12_165 VPWR VGND VPWR VGND sky130_ef_sc_hd__decap_12
XTAP_TAPCELL_ROW_20_119 VGND VPWR sky130_fd_sc_hd__tapvpwrvgnd_1
XFILLER_4_65 VPWR VGND VPWR VGND sky130_ef_sc_hd__decap_12
XTAP_TAPCELL_ROW_9_86 VGND VPWR sky130_fd_sc_hd__tapvpwrvgnd_1
XFILLER_1_55 VGND VGND VPWR VPWR sky130_fd_sc_hd__fill_1
XFILLER_19_149 VPWR VGND VPWR VGND sky130_ef_sc_hd__decap_12
XFILLER_19_105 VGND VGND VPWR VPWR sky130_fd_sc_hd__decap_6
XFILLER_19_51 VGND VGND VPWR VPWR sky130_fd_sc_hd__decap_4
XFILLER_10_53 VPWR VGND VPWR VGND sky130_ef_sc_hd__decap_12
XFILLER_10_97 VPWR VGND VPWR VGND sky130_ef_sc_hd__decap_12
XFILLER_18_3 VPWR VGND VPWR VGND sky130_ef_sc_hd__decap_12
XFILLER_24_141 VPWR VGND VPWR VGND sky130_ef_sc_hd__decap_12
XTAP_TAPCELL_ROW_23_128 VGND VPWR sky130_fd_sc_hd__tapvpwrvgnd_1
XFILLER_21_111 VGND VGND VPWR VPWR sky130_fd_sc_hd__fill_1
XPHY_EDGE_ROW_20_Right_20 VGND VGND VPWR VPWR sky130_fd_sc_hd__decap_3
XFILLER_16_85 VPWR VGND VPWR VGND sky130_ef_sc_hd__decap_12
XFILLER_16_41 VPWR VGND VPWR VGND sky130_ef_sc_hd__decap_12
XPHY_EDGE_ROW_11_Right_11 VGND VGND VPWR VPWR sky130_fd_sc_hd__decap_3
XFILLER_12_133 VGND VGND VPWR VPWR sky130_fd_sc_hd__decap_6
XFILLER_12_177 VPWR VGND VPWR VGND sky130_ef_sc_hd__decap_12
XFILLER_7_181 VGND VGND VPWR VPWR sky130_fd_sc_hd__decap_8
XFILLER_4_77 VGND VGND VPWR VPWR sky130_fd_sc_hd__decap_6
XTAP_TAPCELL_ROW_0_56 VGND VPWR sky130_fd_sc_hd__tapvpwrvgnd_1
XTAP_TAPCELL_ROW_9_87 VGND VPWR sky130_fd_sc_hd__tapvpwrvgnd_1
XFILLER_24_85 VPWR VGND VPWR VGND sky130_ef_sc_hd__decap_12
XFILLER_24_41 VPWR VGND VPWR VGND sky130_ef_sc_hd__decap_12
XFILLER_10_65 VPWR VGND VPWR VGND sky130_ef_sc_hd__decap_12
XTAP_TAPCELL_ROW_6_77 VGND VPWR sky130_fd_sc_hd__tapvpwrvgnd_1
XTAP_TAPCELL_ROW_26_137 VGND VPWR sky130_fd_sc_hd__tapvpwrvgnd_1
XFILLER_24_153 VPWR VGND VPWR VGND sky130_ef_sc_hd__decap_12
XFILLER_16_109 VPWR VGND VPWR VGND sky130_ef_sc_hd__decap_12
XFILLER_7_55 VGND VGND VPWR VPWR sky130_fd_sc_hd__fill_1
XTAP_TAPCELL_ROW_23_129 VGND VPWR sky130_fd_sc_hd__tapvpwrvgnd_1
XFILLER_21_189 VGND VGND VPWR VPWR sky130_fd_sc_hd__fill_1
XFILLER_21_167 VGND VGND VPWR VPWR sky130_fd_sc_hd__fill_1
XFILLER_16_97 VPWR VGND VPWR VGND sky130_ef_sc_hd__decap_12
XFILLER_16_53 VPWR VGND VPWR VGND sky130_ef_sc_hd__decap_12
XFILLER_12_189 VGND VGND VPWR VPWR sky130_fd_sc_hd__fill_1
XFILLER_27_41 VPWR VGND VPWR VGND sky130_ef_sc_hd__decap_12
XFILLER_27_85 VPWR VGND VPWR VGND sky130_ef_sc_hd__decap_12
XFILLER_4_141 VPWR VGND VPWR VGND sky130_ef_sc_hd__decap_12
XTAP_TAPCELL_ROW_13_98 VGND VPWR sky130_fd_sc_hd__tapvpwrvgnd_1
XFILLER_1_111 VGND VGND VPWR VPWR sky130_fd_sc_hd__fill_1
XTAP_TAPCELL_ROW_0_57 VGND VPWR sky130_fd_sc_hd__tapvpwrvgnd_1
XFILLER_8_3 VPWR VGND VPWR VGND sky130_ef_sc_hd__decap_12
XTAP_TAPCELL_ROW_9_88 VGND VPWR sky130_fd_sc_hd__tapvpwrvgnd_1
XFILLER_24_97 VPWR VGND VPWR VGND sky130_ef_sc_hd__decap_12
XFILLER_24_53 VPWR VGND VPWR VGND sky130_ef_sc_hd__decap_12
XFILLER_1_57 VPWR VGND VPWR VGND sky130_ef_sc_hd__decap_12
Xinput1 a_i VGND VGND VPWR VPWR net1 sky130_fd_sc_hd__buf_1
XFILLER_10_77 VGND VGND VPWR VPWR sky130_fd_sc_hd__decap_6
XPHY_EDGE_ROW_27_Left_55 VGND VGND VPWR VPWR sky130_fd_sc_hd__decap_3
XTAP_TAPCELL_ROW_6_78 VGND VPWR sky130_fd_sc_hd__tapvpwrvgnd_1
XPHY_EDGE_ROW_11_Left_39 VGND VGND VPWR VPWR sky130_fd_sc_hd__decap_3
XTAP_TAPCELL_ROW_26_138 VGND VPWR sky130_fd_sc_hd__tapvpwrvgnd_1
XFILLER_24_121 VPWR VGND VPWR VGND sky130_ef_sc_hd__decap_12
XFILLER_24_165 VPWR VGND VPWR VGND sky130_ef_sc_hd__decap_12
XFILLER_23_3 VPWR VGND VPWR VGND sky130_ef_sc_hd__decap_12
XFILLER_21_113 VPWR VGND VPWR VGND sky130_ef_sc_hd__decap_12
XFILLER_16_65 VPWR VGND VPWR VGND sky130_ef_sc_hd__decap_12
XTAP_TAPCELL_ROW_3_68 VGND VPWR sky130_fd_sc_hd__tapvpwrvgnd_1
XFILLER_8_139 VGND VGND VPWR VPWR sky130_fd_sc_hd__fill_1
XFILLER_7_161 VGND VGND VPWR VPWR sky130_fd_sc_hd__decap_6
XPHY_EDGE_ROW_9_Right_9 VGND VGND VPWR VPWR sky130_fd_sc_hd__decap_3
XPHY_EDGE_ROW_14_Left_42 VGND VGND VPWR VPWR sky130_fd_sc_hd__decap_3
XFILLER_27_97 VPWR VGND VPWR VGND sky130_ef_sc_hd__decap_12
XFILLER_27_53 VGND VGND VPWR VPWR sky130_fd_sc_hd__decap_3
XFILLER_4_153 VPWR VGND VPWR VGND sky130_ef_sc_hd__decap_12
XTAP_TAPCELL_ROW_13_99 VGND VPWR sky130_fd_sc_hd__tapvpwrvgnd_1
XFILLER_1_189 VGND VGND VPWR VPWR sky130_fd_sc_hd__fill_1
XFILLER_1_167 VGND VGND VPWR VPWR sky130_fd_sc_hd__fill_1
XTAP_TAPCELL_ROW_0_58 VGND VPWR sky130_fd_sc_hd__tapvpwrvgnd_1
XFILLER_13_55 VGND VGND VPWR VPWR sky130_fd_sc_hd__fill_1
XFILLER_24_65 VPWR VGND VPWR VGND sky130_ef_sc_hd__decap_12
XFILLER_1_69 VPWR VGND VPWR VGND sky130_ef_sc_hd__decap_12
Xinput2 b_i VGND VGND VPWR VPWR net2 sky130_fd_sc_hd__buf_1
XTAP_TAPCELL_ROW_10_89 VGND VPWR sky130_fd_sc_hd__tapvpwrvgnd_1
XFILLER_27_141 VPWR VGND VPWR VGND sky130_ef_sc_hd__decap_12
XPHY_EDGE_ROW_2_Left_30 VGND VGND VPWR VPWR sky130_fd_sc_hd__decap_3
XTAP_TAPCELL_ROW_6_79 VGND VPWR sky130_fd_sc_hd__tapvpwrvgnd_1
XFILLER_18_141 VPWR VGND VPWR VGND sky130_ef_sc_hd__decap_12
XTAP_TAPCELL_ROW_26_139 VGND VPWR sky130_fd_sc_hd__tapvpwrvgnd_1
XFILLER_24_177 VPWR VGND VPWR VGND sky130_ef_sc_hd__decap_12
XFILLER_24_133 VGND VGND VPWR VPWR sky130_fd_sc_hd__decap_6
XFILLER_21_55 VGND VGND VPWR VPWR sky130_fd_sc_hd__fill_1
XFILLER_16_3 VPWR VGND VPWR VGND sky130_ef_sc_hd__decap_12
XFILLER_15_111 VGND VGND VPWR VPWR sky130_fd_sc_hd__fill_1
XFILLER_7_57 VPWR VGND VPWR VGND sky130_ef_sc_hd__decap_12
XFILLER_21_169 VPWR VGND VPWR VGND sky130_ef_sc_hd__decap_12
XFILLER_21_125 VPWR VGND VPWR VGND sky130_ef_sc_hd__decap_12
XFILLER_16_77 VGND VGND VPWR VPWR sky130_fd_sc_hd__decap_6
XTAP_TAPCELL_ROW_3_69 VGND VPWR sky130_fd_sc_hd__tapvpwrvgnd_1
XFILLER_4_121 VPWR VGND VPWR VGND sky130_ef_sc_hd__decap_12
XFILLER_4_165 VPWR VGND VPWR VGND sky130_ef_sc_hd__decap_12
XFILLER_1_113 VPWR VGND VPWR VGND sky130_ef_sc_hd__decap_12
XTAP_TAPCELL_ROW_0_59 VGND VPWR sky130_fd_sc_hd__tapvpwrvgnd_1
XFILLER_24_77 VGND VGND VPWR VPWR sky130_fd_sc_hd__decap_6
XFILLER_1_15 VPWR VGND VPWR VGND sky130_ef_sc_hd__decap_12
XPHY_EDGE_ROW_27_Right_27 VGND VGND VPWR VPWR sky130_fd_sc_hd__decap_3
XPHY_EDGE_ROW_18_Right_18 VGND VGND VPWR VPWR sky130_fd_sc_hd__decap_3
Xinput3 cin_i VGND VGND VPWR VPWR net3 sky130_fd_sc_hd__buf_1
XFILLER_27_153 VPWR VGND VPWR VGND sky130_ef_sc_hd__decap_12
XFILLER_19_55 VGND VGND VPWR VPWR sky130_fd_sc_hd__fill_1
XFILLER_18_153 VPWR VGND VPWR VGND sky130_ef_sc_hd__decap_12
X_7_ net3 _2_ VGND VGND VPWR VPWR net5 sky130_fd_sc_hd__xnor2_1
XFILLER_24_189 VGND VGND VPWR VPWR sky130_fd_sc_hd__fill_1
XFILLER_15_189 VGND VGND VPWR VPWR sky130_fd_sc_hd__fill_1
XFILLER_15_167 VGND VGND VPWR VPWR sky130_fd_sc_hd__fill_1
XFILLER_7_69 VPWR VGND VPWR VGND sky130_ef_sc_hd__decap_12
XFILLER_21_137 VPWR VGND VPWR VGND sky130_ef_sc_hd__decap_12
XPHY_EDGE_ROW_0_Right_0 VGND VGND VPWR VPWR sky130_fd_sc_hd__decap_3
XFILLER_11_181 VGND VGND VPWR VPWR sky130_fd_sc_hd__decap_8
XFILLER_4_15 VPWR VGND VPWR VGND sky130_ef_sc_hd__decap_12
XFILLER_4_133 VGND VGND VPWR VPWR sky130_fd_sc_hd__decap_6
XFILLER_4_177 VPWR VGND VPWR VGND sky130_ef_sc_hd__decap_12
XFILLER_1_125 VPWR VGND VPWR VGND sky130_ef_sc_hd__decap_12
XFILLER_13_57 VPWR VGND VPWR VGND sky130_ef_sc_hd__decap_12
XFILLER_1_169 VPWR VGND VPWR VGND sky130_ef_sc_hd__decap_12
XFILLER_1_27 VPWR VGND VPWR VGND sky130_ef_sc_hd__decap_12
XFILLER_6_3 VPWR VGND VPWR VGND sky130_ef_sc_hd__decap_12
XFILLER_27_165 VGND VGND VPWR VPWR sky130_fd_sc_hd__decap_3
XFILLER_18_165 VPWR VGND VPWR VGND sky130_ef_sc_hd__decap_12
XFILLER_18_121 VPWR VGND VPWR VGND sky130_ef_sc_hd__decap_12
X_6_ net2 net1 VGND VGND VPWR VPWR _2_ sky130_fd_sc_hd__xnor2_1
XFILLER_21_57 VPWR VGND VPWR VGND sky130_ef_sc_hd__decap_12
XFILLER_15_113 VPWR VGND VPWR VGND sky130_ef_sc_hd__decap_12
XFILLER_7_15 VPWR VGND VPWR VGND sky130_ef_sc_hd__decap_12
XFILLER_21_149 VPWR VGND VPWR VGND sky130_ef_sc_hd__decap_12
XFILLER_21_105 VGND VGND VPWR VPWR sky130_fd_sc_hd__decap_6
XTAP_TAPCELL_ROW_7_80 VGND VPWR sky130_fd_sc_hd__tapvpwrvgnd_1
XFILLER_8_109 VPWR VGND VPWR VGND sky130_ef_sc_hd__decap_12
XFILLER_21_3 VPWR VGND VPWR VGND sky130_ef_sc_hd__decap_12
XTAP_TAPCELL_ROW_13_100 VGND VPWR sky130_fd_sc_hd__tapvpwrvgnd_1
XFILLER_4_27 VGND VGND VPWR VPWR sky130_fd_sc_hd__fill_1
XFILLER_4_189 VGND VGND VPWR VPWR sky130_fd_sc_hd__fill_1
XPHY_EDGE_ROW_18_Left_46 VGND VGND VPWR VPWR sky130_fd_sc_hd__decap_3
XFILLER_13_69 VPWR VGND VPWR VGND sky130_ef_sc_hd__decap_12
XFILLER_1_137 VPWR VGND VPWR VGND sky130_ef_sc_hd__decap_12
XFILLER_0_181 VGND VGND VPWR VPWR sky130_fd_sc_hd__decap_8
XFILLER_5_81 VPWR VGND VPWR VGND sky130_ef_sc_hd__decap_12
XFILLER_1_39 VPWR VGND VPWR VGND sky130_ef_sc_hd__decap_12
XFILLER_19_57 VPWR VGND VPWR VGND sky130_ef_sc_hd__decap_12
XFILLER_10_15 VPWR VGND VPWR VGND sky130_ef_sc_hd__decap_12
XFILLER_18_177 VPWR VGND VPWR VGND sky130_ef_sc_hd__decap_12
XFILLER_18_133 VGND VGND VPWR VPWR sky130_fd_sc_hd__decap_6
X_5_ net2 net1 VGND VGND VPWR VPWR _1_ sky130_fd_sc_hd__nand2_1
XFILLER_21_69 VPWR VGND VPWR VGND sky130_ef_sc_hd__decap_12
XFILLER_15_169 VPWR VGND VPWR VGND sky130_ef_sc_hd__decap_12
XFILLER_15_125 VPWR VGND VPWR VGND sky130_ef_sc_hd__decap_12
XPHY_EDGE_ROW_6_Left_34 VGND VGND VPWR VPWR sky130_fd_sc_hd__decap_3
XFILLER_7_27 VPWR VGND VPWR VGND sky130_ef_sc_hd__decap_12
XTAP_TAPCELL_ROW_7_81 VGND VPWR sky130_fd_sc_hd__tapvpwrvgnd_1
XFILLER_12_139 VGND VGND VPWR VPWR sky130_fd_sc_hd__fill_1
XFILLER_11_161 VGND VGND VPWR VPWR sky130_fd_sc_hd__decap_6
XFILLER_14_3 VPWR VGND VPWR VGND sky130_ef_sc_hd__decap_12
XFILLER_27_57 VPWR VGND VPWR VGND sky130_ef_sc_hd__decap_12
XTAP_TAPCELL_ROW_4_71 VGND VPWR sky130_fd_sc_hd__tapvpwrvgnd_1
XFILLER_13_15 VPWR VGND VPWR VGND sky130_ef_sc_hd__decap_12
XFILLER_1_149 VPWR VGND VPWR VGND sky130_ef_sc_hd__decap_12
XFILLER_5_93 VPWR VGND VPWR VGND sky130_ef_sc_hd__decap_12
XFILLER_19_69 VPWR VGND VPWR VGND sky130_ef_sc_hd__decap_12
XFILLER_10_27 VGND VGND VPWR VPWR sky130_fd_sc_hd__fill_1
XFILLER_27_189 VGND VGND VPWR VPWR sky130_fd_sc_hd__fill_1
XPHY_EDGE_ROW_23_Right_23 VGND VGND VPWR VPWR sky130_fd_sc_hd__decap_3
XPHY_EDGE_ROW_14_Right_14 VGND VGND VPWR VPWR sky130_fd_sc_hd__decap_3
X_4_ net3 VGND VGND VPWR VPWR _0_ sky130_fd_sc_hd__inv_2
XPHY_EDGE_ROW_22_Left_50 VGND VGND VPWR VPWR sky130_fd_sc_hd__decap_3
XFILLER_18_189 VGND VGND VPWR VPWR sky130_fd_sc_hd__fill_1
XFILLER_2_83 VGND VGND VPWR VPWR sky130_fd_sc_hd__fill_1
XFILLER_23_181 VGND VGND VPWR VPWR sky130_fd_sc_hd__decap_8
XFILLER_21_15 VPWR VGND VPWR VGND sky130_ef_sc_hd__decap_12
XFILLER_15_137 VPWR VGND VPWR VGND sky130_ef_sc_hd__decap_12
XTAP_TAPCELL_ROW_11_92 VGND VPWR sky130_fd_sc_hd__tapvpwrvgnd_1
XFILLER_7_39 VPWR VGND VPWR VGND sky130_ef_sc_hd__decap_12
XTAP_TAPCELL_ROW_7_82 VGND VPWR sky130_fd_sc_hd__tapvpwrvgnd_1
XFILLER_11_81 VPWR VGND VPWR VGND sky130_ef_sc_hd__decap_12
XFILLER_16_15 VPWR VGND VPWR VGND sky130_ef_sc_hd__decap_12
XFILLER_7_111 VGND VGND VPWR VPWR sky130_fd_sc_hd__fill_1
XPHY_EDGE_ROW_4_Right_4 VGND VGND VPWR VPWR sky130_fd_sc_hd__decap_3
XFILLER_27_69 VPWR VGND VPWR VGND sky130_ef_sc_hd__decap_12
XFILLER_4_29 VPWR VGND VPWR VGND sky130_ef_sc_hd__decap_12
XTAP_TAPCELL_ROW_4_72 VGND VPWR sky130_fd_sc_hd__tapvpwrvgnd_1
XFILLER_13_27 VPWR VGND VPWR VGND sky130_ef_sc_hd__decap_12
XFILLER_24_15 VPWR VGND VPWR VGND sky130_ef_sc_hd__decap_12
XTAP_TAPCELL_ROW_1_62 VGND VPWR sky130_fd_sc_hd__tapvpwrvgnd_1
XFILLER_27_113 VPWR VGND VPWR VGND sky130_ef_sc_hd__decap_12
XFILLER_19_15 VPWR VGND VPWR VGND sky130_ef_sc_hd__decap_12
X_3_ _0_ _2_ _1_ VGND VGND VPWR VPWR net4 sky130_fd_sc_hd__o21ai_1
XFILLER_4_3 VPWR VGND VPWR VGND sky130_ef_sc_hd__decap_12
XFILLER_21_27 VPWR VGND VPWR VGND sky130_ef_sc_hd__decap_12
XFILLER_15_105 VGND VGND VPWR VPWR sky130_fd_sc_hd__decap_6
XTAP_TAPCELL_ROW_11_93 VGND VPWR sky130_fd_sc_hd__tapvpwrvgnd_1
XFILLER_15_149 VPWR VGND VPWR VGND sky130_ef_sc_hd__decap_12
XFILLER_11_93 VPWR VGND VPWR VGND sky130_ef_sc_hd__decap_12
XTAP_TAPCELL_ROW_22_125 VGND VPWR sky130_fd_sc_hd__tapvpwrvgnd_1
XFILLER_20_141 VPWR VGND VPWR VGND sky130_ef_sc_hd__decap_12
XFILLER_16_27 VGND VGND VPWR VPWR sky130_fd_sc_hd__fill_1
XFILLER_7_167 VGND VGND VPWR VPWR sky130_fd_sc_hd__fill_1
XFILLER_7_189 VGND VGND VPWR VPWR sky130_fd_sc_hd__fill_1
XFILLER_8_83 VGND VGND VPWR VPWR sky130_fd_sc_hd__fill_1
XFILLER_27_15 VPWR VGND VPWR VGND sky130_ef_sc_hd__decap_12
XFILLER_17_81 VPWR VGND VPWR VGND sky130_ef_sc_hd__decap_12
XFILLER_3_181 VGND VGND VPWR VPWR sky130_fd_sc_hd__decap_8
XTAP_TAPCELL_ROW_4_73 VGND VPWR sky130_fd_sc_hd__tapvpwrvgnd_1
XFILLER_1_107 VGND VGND VPWR VPWR sky130_fd_sc_hd__decap_4
XFILLER_13_39 VPWR VGND VPWR VGND sky130_ef_sc_hd__decap_12
XFILLER_24_27 VGND VGND VPWR VPWR sky130_fd_sc_hd__fill_1
XFILLER_5_51 VGND VGND VPWR VPWR sky130_fd_sc_hd__decap_4
XTAP_TAPCELL_ROW_1_63 VGND VPWR sky130_fd_sc_hd__tapvpwrvgnd_1
XFILLER_27_169 VPWR VGND VPWR VGND sky130_ef_sc_hd__decap_12
XFILLER_27_125 VPWR VGND VPWR VGND sky130_ef_sc_hd__decap_12
XFILLER_19_27 VPWR VGND VPWR VGND sky130_ef_sc_hd__decap_12
XFILLER_10_29 VPWR VGND VPWR VGND sky130_ef_sc_hd__decap_12
XFILLER_25_81 VPWR VGND VPWR VGND sky130_ef_sc_hd__decap_12
XFILLER_24_139 VGND VGND VPWR VPWR sky130_fd_sc_hd__fill_1
XFILLER_21_39 VPWR VGND VPWR VGND sky130_ef_sc_hd__decap_12
XFILLER_2_85 VPWR VGND VPWR VGND sky130_ef_sc_hd__decap_12
XFILLER_2_41 VPWR VGND VPWR VGND sky130_ef_sc_hd__decap_12
XTAP_TAPCELL_ROW_25_134 VGND VPWR sky130_fd_sc_hd__tapvpwrvgnd_1
XFILLER_23_161 VGND VGND VPWR VPWR sky130_fd_sc_hd__decap_6
XTAP_TAPCELL_ROW_11_94 VGND VPWR sky130_fd_sc_hd__tapvpwrvgnd_1
XTAP_TAPCELL_ROW_22_126 VGND VPWR sky130_fd_sc_hd__tapvpwrvgnd_1
XFILLER_20_153 VPWR VGND VPWR VGND sky130_ef_sc_hd__decap_12
XFILLER_12_109 VPWR VGND VPWR VGND sky130_ef_sc_hd__decap_12
XFILLER_7_113 VPWR VGND VPWR VGND sky130_ef_sc_hd__decap_12
XFILLER_27_27 VGND VGND VPWR VPWR sky130_fd_sc_hd__fill_1
XFILLER_17_93 VPWR VGND VPWR VGND sky130_ef_sc_hd__decap_12
XFILLER_12_3 VPWR VGND VPWR VGND sky130_ef_sc_hd__decap_12
XFILLER_0_141 VPWR VGND VPWR VGND sky130_ef_sc_hd__decap_12
XTAP_TAPCELL_ROW_1_64 VGND VPWR sky130_fd_sc_hd__tapvpwrvgnd_1
XFILLER_14_83 VGND VGND VPWR VPWR sky130_fd_sc_hd__fill_1
XFILLER_27_137 VGND VGND VPWR VPWR sky130_fd_sc_hd__decap_3
XFILLER_19_39 VPWR VGND VPWR VGND sky130_ef_sc_hd__decap_12
XFILLER_25_93 VPWR VGND VPWR VGND sky130_ef_sc_hd__decap_12
XFILLER_17_181 VGND VGND VPWR VPWR sky130_fd_sc_hd__decap_8
XFILLER_2_97 VGND VGND VPWR VPWR sky130_fd_sc_hd__fill_1
XFILLER_2_53 VPWR VGND VPWR VGND sky130_ef_sc_hd__decap_12
XPHY_EDGE_ROW_10_Right_10 VGND VGND VPWR VPWR sky130_fd_sc_hd__decap_3
XTAP_TAPCELL_ROW_25_135 VGND VPWR sky130_fd_sc_hd__tapvpwrvgnd_1
XFILLER_11_51 VGND VGND VPWR VPWR sky130_fd_sc_hd__decap_4
XPHY_EDGE_ROW_26_Left_54 VGND VGND VPWR VPWR sky130_fd_sc_hd__decap_3
XPHY_EDGE_ROW_10_Left_38 VGND VGND VPWR VPWR sky130_fd_sc_hd__decap_3
XTAP_TAPCELL_ROW_22_127 VGND VPWR sky130_fd_sc_hd__tapvpwrvgnd_1
XFILLER_20_165 VPWR VGND VPWR VGND sky130_ef_sc_hd__decap_12
XFILLER_20_121 VPWR VGND VPWR VGND sky130_ef_sc_hd__decap_12
XFILLER_16_29 VPWR VGND VPWR VGND sky130_ef_sc_hd__decap_12
XFILLER_22_83 VGND VGND VPWR VPWR sky130_fd_sc_hd__fill_1
XFILLER_7_125 VPWR VGND VPWR VGND sky130_ef_sc_hd__decap_12
XFILLER_7_169 VPWR VGND VPWR VGND sky130_ef_sc_hd__decap_12
XFILLER_8_41 VPWR VGND VPWR VGND sky130_ef_sc_hd__decap_12
XFILLER_8_85 VPWR VGND VPWR VGND sky130_ef_sc_hd__decap_12
XFILLER_4_139 VGND VGND VPWR VPWR sky130_fd_sc_hd__fill_1
XFILLER_3_161 VGND VGND VPWR VPWR sky130_fd_sc_hd__decap_6
XPHY_EDGE_ROW_8_Right_8 VGND VGND VPWR VPWR sky130_fd_sc_hd__decap_3
XPHY_EDGE_ROW_13_Left_41 VGND VGND VPWR VPWR sky130_fd_sc_hd__decap_3
XFILLER_0_153 VPWR VGND VPWR VGND sky130_ef_sc_hd__decap_12
XFILLER_24_29 VPWR VGND VPWR VGND sky130_ef_sc_hd__decap_12
XFILLER_2_65 VPWR VGND VPWR VGND sky130_ef_sc_hd__decap_12
XTAP_TAPCELL_ROW_25_136 VGND VPWR sky130_fd_sc_hd__tapvpwrvgnd_1
XFILLER_14_185 VGND VGND VPWR VPWR sky130_fd_sc_hd__fill_1